135191
     RDKit          3D

 10 10  0  0  1  0  0  0  0  0999 V2000
    1.1053   -0.5492    9.4212 O   0  0  0  0  0  0  0  0  0  0  0  0
   -0.2604   -4.3962    8.8699 O   0  0  0  0  0  0  0  0  0  0  0  0
    0.9621   -3.5904   11.2428 O   0  0  0  0  0  0  0  0  0  0  0  0
   -0.0860   -2.5972    6.7332 O   0  0  0  0  0  0  0  0  0  0  0  0
    2.2414   -1.1781   11.3175 O   0  0  0  0  0  0  0  0  0  0  0  0
    0.4957   -3.2604    8.8960 C   0  0  2  0  0  0  0  0  0  0  0  0
    0.6477   -2.6641   10.2876 C   0  0  2  0  0  0  0  0  0  0  0  0
   -0.0874   -2.1370    8.0440 C   0  0  1  0  0  0  0  0  0  0  0  0
    1.6968   -1.5774   10.1348 C   0  0  1  0  0  0  0  0  0  0  0  0
    0.7378   -0.9063    8.1597 C   0  0  0  0  0  0  0  0  0  0  0  0
  1  9  1  0
 10  1  1  1
  6  2  1  1
  7  3  1  1
  8  4  1  6
  9  5  1  1
  6  7  1  0
  6  8  1  0
  7  9  1  0
  8 10  1  0
M  END
>  <PUBCHEM_COMPOUND_CID>  (1) 
135191

>  <PUBCHEM_CONFORMER_RMSD>  (1) 
0.4

>  <PUBCHEM_CONFORMER_DIVERSEORDER>  (1) 
1
3
2
6
5
4
7

>  <PUBCHEM_MMFF94_PARTIAL_CHARGES>  (1) 
14
1 -0.56
10 0.28
17 0.4
18 0.4
19 0.4
2 -0.68
20 0.4
3 -0.68
4 -0.68
5 -0.68
6 0.28
7 0.28
8 0.28
9 0.56

>  <PUBCHEM_EFFECTIVE_ROTOR_COUNT>  (1) 
1.2

>  <PUBCHEM_PHARMACOPHORE_FEATURES>  (1) 
10
1 1 acceptor
1 2 acceptor
1 2 donor
1 3 acceptor
1 3 donor
1 4 acceptor
1 4 donor
1 5 acceptor
1 5 donor
6 1 6 7 8 9 10 rings

>  <PUBCHEM_HEAVY_ATOM_COUNT>  (1) 
10

>  <PUBCHEM_ATOM_DEF_STEREO_COUNT>  (1) 
3

>  <PUBCHEM_ATOM_UDEF_STEREO_COUNT>  (1) 
1

>  <PUBCHEM_BOND_DEF_STEREO_COUNT>  (1) 
0

>  <PUBCHEM_BOND_UDEF_STEREO_COUNT>  (1) 
0

>  <PUBCHEM_ISOTOPIC_ATOM_COUNT>  (1) 
0

>  <PUBCHEM_COMPONENT_COUNT>  (1) 
1

>  <PUBCHEM_CACTVS_TAUTO_COUNT>  (1) 
1

>  <PUBCHEM_CONFORMER_ID>  (1) 
0002101700000001

>  <PUBCHEM_MMFF94_ENERGY>  (1) 
21.2438

>  <PUBCHEM_FEATURE_SELFOVERLAP>  (1) 
50.804

>  <PUBCHEM_SHAPE_FINGERPRINT>  (1) 
11206711 2 18337107873890066981
12423570 1 18060413616602549935
161256 15 18411138081866616661
16945 1 18410567392382192874
18185500 45 18050845511766911987
21040471 1 18409445890542713518
23552423 10 18044656640219169750
241688 4 17979641134525892434
2748010 2 18122345949783620895
29004967 10 18411141316003409923
5084963 1 18202561786960746979
66348 1 18194967567516488715

>  <PUBCHEM_SHAPE_MULTIPOLES>  (1) 
176.45
2.82
1.98
0.65
0.05
0.4
0.01
-0.3
0.04
-0.02
-0.02
-0.01
0.03
0.26

>  <PUBCHEM_SHAPE_SELFOVERLAP>  (1) 
350.147

>  <PUBCHEM_SHAPE_VOLUME>  (1) 
102.8

>  <PUBCHEM_COORDINATE_TYPE>  (1) 
2
5
10

$$$$
